Circuit: * C:\Users\ipave\Documents\GitHub\TCII\TP Semanal 8\Draft2.asc

WARNING: Less than two connections to node N003.  This node is used by V3.
Direct Newton iteration for .op point succeeded.

Date: Thu Aug 26 21:42:53 2021
Total elapsed time: 0.034 seconds.

tnom = 27
temp = 27
method = modified trap
totiter = 2091
traniter = 2088
tranpoints = 1045
accept = 1045
rejected = 0
matrix size = 8
fillins = 0
solver = Normal
Matrix Compiler1:      12 opcodes  0.0/[0.0]/0.0
Matrix Compiler2: 492 bytes object code size  0.0/0.0/[0.0]

