Questionable use of curly braces in "e1 mat 0 n001 0 laplace{1/(s*s+s*1.41+1)}"
    Error: undefined symbol in: "1/([s]*s+s*1.41+1)"
Circuit: * C:\Users\ipave\TCII-master\TPL\demo2.asc

WARNING: Less than two connections to node MAT.  This node is used by E1.
Ignoring empty pin current: Ix(u1:1)
Ignoring empty pin current: Ix(u1:2)
Ignoring empty pin current: Ix(u2:1)
Ignoring empty pin current: Ix(u2:2)
Ignoring empty pin current: Ix(u3:1)
Ignoring empty pin current: Ix(u3:2)
Ignoring empty pin current: Ix(u4:1)
Ignoring empty pin current: Ix(u4:2)

Date: Wed Apr 20 22:42:27 2022
Total elapsed time: 0.029 seconds.

tnom = 27
temp = 27
method = trap
totiter = 0
traniter = 0
tranpoints = 0
accept = 0
rejected = 0
matrix size = 15
fillins = 16
solver = Normal

