Circuit: * C:\Users\ipave\Documents\GitHub\TCII\Demo\Draft1.asc

Direct Newton iteration for .op point succeeded.
Ignoring empty pin current: Ix(u1:1)
Ignoring empty pin current: Ix(u1:2)
Ignoring empty pin current: Ix(u1:1)
Ignoring empty pin current: Ix(u1:2)

Date: Sat May 14 11:44:50 2022
Total elapsed time: 1.908 seconds.

tnom = 27
temp = 27
method = modified trap
totiter = 551113
traniter = 551110
tranpoints = 275556
accept = 194199
rejected = 81357
matrix size = 7
fillins = 2
solver = Normal
Matrix Compiler1: 330 bytes object code size  0.1/0.0/[0.0]
Matrix Compiler2: 501 bytes object code size  0.0/0.1/[0.0]

