Circuit: * C:\Users\ipave\Documents\GitHub\TCII\TP Semanal 12\Draft1.asc

Direct Newton iteration for .op point succeeded.

Date: Tue Oct 05 23:09:00 2021
Total elapsed time: 0.035 seconds.

tnom = 27
temp = 27
method = trap
totiter = 7
traniter = 0
tranpoints = 0
accept = 0
rejected = 0
matrix size = 13
fillins = 2
solver = Normal
Matrix Compiler1:      55 opcodes
Matrix Compiler2: 1.10 KB object code size
