Questionable use of curly braces in "g1 0 mat n002 0 laplace{(5/6)*((s*s+5*s+4)/(s*s+8*s+12))}"
    Error: undefined symbol in: "(5/6)*(([s]*s+5*s+4)/(s*s+8*s+12))"
Circuit: * C:\Users\ipave\Documents\GitHub\TCII\TP Semanal 12\ej1.asc


Date: Mon Oct 11 20:07:22 2021
Total elapsed time: 0.023 seconds.

tnom = 27
temp = 27
method = trap
totiter = 0
traniter = 0
tranpoints = 0
accept = 0
rejected = 0
matrix size = 6
fillins = 0
solver = Normal

