Questionable use of curly braces in "e1 mat 0 vi 0 laplace{(s*(s*s+1))/((s*s+2)*(s*s+5))}"
    Error: undefined symbol in: "([s]*(s*s+1))/((s*s+2)*(s*s+5))"
Circuit: * C:\Users\ipave\Documents\GitHub\TCII\TP Semanal 12\ej2.asc

WARNING: Node N002 is floating.


Date: Sun Oct 03 18:23:07 2021
Total elapsed time: 0.032 seconds.

tnom = 27
temp = 27
method = trap
totiter = 0
traniter = 0
tranpoints = 0
accept = 0
rejected = 0
matrix size = 7
fillins = 2
solver = Normal

