Circuit: * C:\Users\ipave\Documents\GitHub\TCII\TPL\Draft2.asc


Date: Fri Oct 22 20:13:47 2021
Total elapsed time: 0.023 seconds.

tnom = 27
temp = 27
method = trap
totiter = 0
traniter = 0
tranpoints = 0
accept = 0
rejected = 0
matrix size = 10
fillins = 1
solver = Normal

