Circuit: * C:\Users\ipave\Documents\GitHub\TCII\TPL\Draft1.asc


Date: Fri Oct 22 18:30:19 2021
Total elapsed time: 0.031 seconds.

tnom = 27
temp = 27
method = trap
totiter = 0
traniter = 0
tranpoints = 0
accept = 0
rejected = 0
matrix size = 4
fillins = 1
solver = Normal

