Questionable use of curly braces in "e1 mat 0 n002 0 laplace{74801212.30/(s*s+s*12194.76+74801212.30)}"
    Error: undefined symbol in: "74801212.30/([s]*s+s*12194.76+74801212.30)"
Circuit: * C:\Users\ipave\Documents\GitHub\TCII\TPL\TPL.asc

WARNING: Less than two connections to node MAT.  This node is used by E1.
Ignoring empty pin current: Ix(u1:1)
Ignoring empty pin current: Ix(u1:2)
Ignoring empty pin current: Ix(u2:1)
Ignoring empty pin current: Ix(u2:2)
Ignoring empty pin current: Ix(u3:1)
Ignoring empty pin current: Ix(u3:2)
Ignoring empty pin current: Ix(u4:1)
Ignoring empty pin current: Ix(u4:2)

Date: Fri Oct 29 19:49:11 2021
Total elapsed time: 0.031 seconds.

tnom = 27
temp = 27
method = trap
totiter = 0
traniter = 0
tranpoints = 0
accept = 0
rejected = 0
matrix size = 15
fillins = 10
solver = Normal

