Questionable use of curly braces in "e1 mat 0 vi 0 laplace{(7/2)*(s+1)/((s+2)*(s+4))}"
    Error: undefined symbol in: "(7/2)*([s]+1)/((s+2)*(s+4))"
Circuit: * C:\Users\ipave\Documents\GitHub\TCII\TP3\TP3 simulaciones\Draft3.asc


Date: Sun Oct 03 17:34:02 2021
Total elapsed time: 0.056 seconds.

tnom = 27
temp = 27
method = trap
totiter = 0
traniter = 0
tranpoints = 0
accept = 0
rejected = 0
matrix size = 6
fillins = 2
solver = Normal

