Questionable use of curly braces in "b1 n003 0  v={-v(v2)*{k}}"
    Error: undefined symbol in: "-[v](v2)*(k)"
Questionable use of curly braces in "b2 0 v2 i={i(b1)}"
    Error: undefined symbol in: "[i](b1)"
Circuit: * C:\Users\ipave\Documents\GitHub\TCII\TP3\TP3 simulaciones\Draft2.asc

.OP point found by inspection.

Date: Thu Sep 16 00:59:57 2021
Total elapsed time: 0.028 seconds.

tnom = 27
temp = 27
method = trap
totiter = 0
traniter = 0
tranpoints = 0
accept = 0
rejected = 0
matrix size = 5
fillins = 1
solver = Normal

