Questionable use of curly braces in "e1 n002 0 n001 0 laplace{31.62*(s^2+140634.7899)/(s^2+2487.12*s+3091970.56)}"
    Error: undefined symbol in: "31.62*([s]^2+140634.7899)/(s^2+2487.12*s+3091970.56)"
Circuit: * G:\Mi unidad\Facu\UTN\UTN 2021\TCII\TP3\Draft1.asc


Date: Fri Jun 18 10:28:39 2021
Total elapsed time: 0.043 seconds.

tnom = 27
temp = 27
method = trap
totiter = 0
traniter = 0
tranpoints = 0
accept = 0
rejected = 0
matrix size = 4
fillins = 1
solver = Normal

