Circuit: * C:\Users\ipave\Documents\GitHub\TCII\TP3\TP3 simulaciones\ej7.asc

.OP point found by inspection.
Ignoring empty pin current: Ix(u1:1)
Ignoring empty pin current: Ix(u1:2)
Ignoring empty pin current: Ix(u2:1)
Ignoring empty pin current: Ix(u2:2)
Ignoring empty pin current: Ix(u1:1)
Ignoring empty pin current: Ix(u1:2)
Ignoring empty pin current: Ix(u2:1)
Ignoring empty pin current: Ix(u2:2)

Date: Wed Sep 15 15:07:24 2021
Total elapsed time: 0.024 seconds.

tnom = 27
temp = 27
method = modified trap
totiter = 2098
traniter = 2098
tranpoints = 1050
accept = 1049
rejected = 1
matrix size = 8
fillins = 1
solver = Normal
Matrix Compiler1:      20 opcodes  0.1/[0.0]/0.0
Matrix Compiler2: 594 bytes object code size  0.1/0.1/[0.0]

