Circuit: * C:\Users\ipave\Documents\GitHub\TCII\TP Semanal 15\Draft2.asc


Date: Sun Nov 21 14:56:32 2021
Total elapsed time: 0.017 seconds.

tnom = 27
temp = 27
method = trap
totiter = 0
traniter = 0
tranpoints = 0
accept = 0
rejected = 0
matrix size = 3
fillins = 0
solver = Normal

