Questionable use of curly braces in "g1 0 n004 n004 0 laplace{1/sqrt({r}*{r}*(1+({47.7m*s/2}/4*{(1/47.7m*s)})))}"
    Error: undefined symbol in: "1/sqrt((r)*(r)*(1+((47.7m*[s]/2)/4*((1/47.7m*s)))))"
Questionable use of curly braces in "g1 0 n004 n004 0 laplace(1/sqrt({r}*{r}*(1+({47.7m*s/2}/4*{(1/47.7m*s)}))))"
    Error: undefined symbol in: "47.7m*[s]/2"
Questionable use of curly braces in "g1 0 n004 n004 0 laplace(1/sqrt({r}*{r}*(1+((47.7m*s/2)/4*{(1/47.7m*s)}))))"
    Error: undefined symbol in: "(1/47.7m*[s])"
Circuit: * C:\Users\ipave\Documents\GitHub\TCII\TP Semanal 15\Draft1.asc


Date: Mon Nov 08 21:29:13 2021
Total elapsed time: 0.027 seconds.

tnom = 27
temp = 27
method = trap
totiter = 0
traniter = 0
tranpoints = 0
accept = 0
rejected = 0
matrix size = 5
fillins = 3
solver = Normal

