Circuit: * C:\Users\ipave\Documents\GitHub\TCII\TP Semanal 15\kcte.asc

WARNING: Node N003 is floating.
WARNING: Node N005 is floating.


Date: Mon Nov 08 20:47:02 2021
Total elapsed time: 0.065 seconds.

tnom = 27
temp = 27
method = trap
totiter = 0
traniter = 0
tranpoints = 0
accept = 0
rejected = 0
matrix size = 9
fillins = 0
solver = Normal

