Circuit: * C:\Users\ipave\Documents\GitHub\TCII\TP Semanal 5\Draft2.asc

.OP point found by inspection.

Date: Sun Jun 27 22:53:32 2021
Total elapsed time: 0.087 seconds.

tnom = 27
temp = 27
method = modified trap
totiter = 2082
traniter = 2082
tranpoints = 1042
accept = 1042
rejected = 0
matrix size = 3
fillins = 0
solver = Normal
Matrix Compiler1:       3 opcodes  0.0/[0.0]/0.0
Matrix Compiler2:      15 opcodes  0.0/[0.0]/0.5

