Circuit: * C:\Users\ipave\Documents\GitHub\TCII\TP Semanal 5\Draft1.asc


Date: Tue Jun 29 23:15:49 2021
Total elapsed time: 0.023 seconds.

tnom = 27
temp = 27
method = trap
totiter = 0
traniter = 0
tranpoints = 0
accept = 0
rejected = 0
matrix size = 4
fillins = 0
solver = Normal

