Questionable use of curly braces in "e1 n002 0 n001 0 laplace{(s*(s^2+1/9))/((s^2+1.193*s+1)*(s+1/3))}"
    Error: undefined symbol in: "([s]*(s^2+1/9))/((s^2+1.193*s+1)*(s+1/3))"
Circuit: * C:\Users\ipave\Documents\GitHub\TCII\TP Semanal 5\Draft5.asc

WARNING: Less than two connections to node N002.  This node is used by E1.

Date: Sun Jun 20 04:58:06 2021
Total elapsed time: 0.103 seconds.

tnom = 27
temp = 27
method = trap
totiter = 0
traniter = 0
tranpoints = 0
accept = 0
rejected = 0
matrix size = 4
fillins = 0
solver = Normal

