Circuit: * C:\Users\ipave\Documents\GitHub\TCII\TP Semanal 5\finalnorm.asc

Ignoring empty pin current: Ix(iop1:1)
Ignoring empty pin current: Ix(iop1:2)
Ignoring empty pin current: Ix(iop2:1)
Ignoring empty pin current: Ix(iop2:2)

Date: Mon Jun 21 13:04:16 2021
Total elapsed time: 0.051 seconds.

tnom = 27
temp = 27
method = trap
totiter = 0
traniter = 0
tranpoints = 0
accept = 0
rejected = 0
matrix size = 8
fillins = 7
solver = Normal

