Circuit: * C:\Users\ipave\Documents\GitHub\TCII\TP Semanal 13\Draft1.asc

.OP point found by inspection.

Date: Thu Oct 14 08:39:58 2021
Total elapsed time: 0.051 seconds.

tnom = 27
temp = 27
method = modified trap
totiter = 2082
traniter = 2082
tranpoints = 1042
accept = 1042
rejected = 0
matrix size = 3
fillins = 0
solver = Normal
Matrix Compiler1:       5 opcodes  0.0/[0.0]/0.0
Matrix Compiler2: 163 bytes object code size  0.0/0.0/[0.0]

