Questionable use of curly braces in "g1 0 mat n001 0 laplace{74801212.30/(s*s+s*12194.76+74801212.30)}"
    Error: undefined symbol in: "74801212.30/([s]*s+s*12194.76+74801212.30)"
Circuit: * C:\Users\ipave\Documents\GitHub\TCII\TP Semanal 13\ej2.asc


Date: Thu Oct 14 19:19:49 2021
Total elapsed time: 0.028 seconds.

tnom = 27
temp = 27
method = trap
totiter = 0
traniter = 0
tranpoints = 0
accept = 0
rejected = 0
matrix size = 3
fillins = 0
solver = Normal

